13
structure 1
C -1.71631 -0.02115 -0.20814
O 4.63004 -0.02115 -0.20814
O -2.38444 -0.02115 -1.22909
C -2.28925 -0.01491 1.13030
Si -4.14600 0.03847 1.32235
H -4.76572 -1.15770 0.70063
H -4.69459 1.26500 0.69295
H -4.45880 0.05325 2.77429
H -1.60083 -0.04737 1.97013
C 5.23527 -0.01801 -1.49947
H 6.30456 0.08958 -1.32342
H 4.85479 0.81096 -2.09974
H 5.03128 -0.95581 -2.02267
13
structure 2
C -1.54735 -0.02342 -0.15781
O 4.33697 -0.02167 -0.14964
O -2.18247 -0.01902 -1.30486
C -2.14865 -0.01576 1.11794
Si -4.00649 0.03817 1.28115
H -4.57901 -1.11315 0.65648
H -4.51098 1.21808 0.65132
H -4.34091 0.05156 2.66489
H -1.48528 -0.04593 1.97551
C 4.97752 -0.01914 -1.43936
H 6.05073 0.09177 -1.26204
H 4.63026 0.81475 -2.05679
H 4.80274 -0.95621 -1.97625
13
structure 3
C -1.36240 -0.02332 -0.15436
O 4.04824 -0.02137 -0.11089
O -1.97297 -0.01853 -1.31467
C -1.99459 -0.01623 1.10607
Si -3.85524 0.03742 1.22399
H -4.41183 -1.11454 0.58647
H -4.34412 1.21823 0.58383
H -4.22165 0.05025 2.59937
H -1.35383 -0.04674 1.98012
C 4.72153 -0.01840 -1.38389
H 5.79001 0.09266 -1.18043
H 4.39035 0.81602 -2.00933
H 4.56097 -0.95543 -1.92527
13
structure 4
C -1.17237 -0.02316 -0.15004
O 3.75115 -0.02103 -0.07327
O -1.75797 -0.01804 -1.32310
C -1.83699 -0.01670 1.09345
Si -3.69998 0.03662 1.16540
H -4.24115 -1.11572 0.51546
H -4.17382 1.21815 0.51538
H -4.09949 0.04889 2.53154
H -1.22059 -0.04754 1.98428
C 4.45980 -0.01767 -1.32713
H 5.52270 0.09348 -1.09664
H 4.14621 0.81722 -1.96080
H 4.31478 -0.95451 -1.87311
13
structure 5
C -0.98497 -0.02292 -0.14493
O 3.45819 -0.02066 -0.03885
O -1.54676 -0.01757 -1.32948
C -1.68245 -0.01716 1.08048
Si -3.54727 0.03581 1.10800
H -4.07447 -1.11655 0.44672
H -4.00759 1.21775 0.44909
H -3.97967 0.04754 2.46435
H -1.09146 -0.04830 1.98771
C 4.20364 -0.01700 -1.27155
H 5.26035 0.09421 -1.01444
H 3.90870 0.81829 -1.91333
H 4.07511 -0.95347 -1.82205
13
structure 6
C -0.80706 -0.02264 -0.13962
O 3.18046 -0.02028 -0.00819
O -1.34716 -0.01714 -1.33412
C -1.53634 -0.01759 1.06756
Si -3.40284 0.03501 1.05398
H -3.91791 -1.11708 0.38254
H -3.85148 1.21715 0.38719
H -3.86667 0.04625 2.40053
H -0.97077 -0.04898 1.99029
C 3.96204 -0.01641 -1.21894
H 5.01238 0.09481 -0.93695
H 3.68593 0.81913 -1.86851
H 3.85014 -0.95229 -1.77384
13
structure 7
C -0.61560 -0.02130 -0.16059
O 2.87708 -0.01964 0.02342
O -1.12015 -0.01743 -1.30776
C -1.38214 -0.01810 1.05156
Si -3.24739 0.03430 0.99638
H -3.74836 -1.11735 0.31352
H -3.68257 1.21627 0.32058
H -3.74396 0.04484 2.33131
H -0.84051 -0.05011 1.98935
C 3.69921 -0.01596 -1.16146
H 4.74222 0.09538 -0.85303
H 3.44537 0.81976 -1.81965
H 3.60713 -0.95072 -1.72161
13
structure 8
C -0.43326 -0.02072 -0.15538
O 2.59681 -0.01915 0.05099
O -0.92078 -0.01710 -1.30917
C -1.23500 -0.01859 1.03676
Si -3.10287 0.03345 0.94303
H -3.59435 -1.11736 0.25115
H -3.52908 1.21517 0.26041
H -3.63175 0.04355 2.26718
H -0.72271 -0.05074 1.99049
C 3.45756 -0.01552 -1.10837
H 4.49371 0.09575 -0.77641
H 3.22635 0.82015 -1.77503
H 3.38562 -0.94897 -1.67367
13
structure 9
C -0.22896 -0.02026 -0.14903
O 2.28710 -0.01889 0.08577
O -0.69976 -0.01652 -1.31212
C -1.06870 -0.01911 1.01889
Si -2.94097 0.03238 0.88364
H -3.42299 -1.11724 0.18199
H -3.35826 1.21378 0.19372
H -3.50638 0.04209 2.19526
H -0.59192 -0.05125 1.99086
C 3.18552 -0.01480 -1.04969
H 4.21439 0.09595 -0.69132
H 2.98276 0.82066 -1.72596
H 3.13892 -0.94687 -1.62032
13
structure 10
C -0.03256 -0.01994 -0.14140
O 2.00348 -0.01887 0.12700
O -0.50493 -0.01577 -1.31983
C -0.91485 -0.01958 1.00077
Si -2.79580 0.03126 0.83016
H -3.27026 -1.11721 0.12040
H -3.20593 1.21258 0.13436
H -3.39410 0.04078 2.13093
H -0.47547 -0.05150 1.99077
C 2.93505 -0.01398 -0.99954
H 3.96162 0.09587 -0.61483
H 2.76602 0.82140 -1.68378
H 2.91896 -0.94509 -1.57363
13
structure 11
C 0.21546 -0.01918 -0.11909
O 1.68185 -0.01948 0.14554
O -0.32056 -0.01524 -1.33222
C -0.76252 -0.02012 0.98030
Si -2.65972 0.03029 0.77987
H -3.13190 -1.11545 0.06602
H -3.06813 1.20978 0.08190
H -3.29039 0.03955 2.07028
H -0.37130 -0.05179 1.99086
C 2.68928 -0.01266 -0.94523
H 3.72365 0.09532 -0.54256
H 2.56858 0.82105 -1.64504
H 2.71730 -0.94208 -1.52948
13
structure 12
C 0.25319 -0.02002 -0.14837
O 1.55471 -0.01840 0.19617
O -0.13143 -0.01650 -1.30630
C -0.64319 -0.02014 0.99889
Si -2.48738 0.03020 0.70959
H -2.92468 -1.16408 -0.05454
H -2.85939 1.25872 -0.03459
H -3.16134 0.03845 2.03318
H -0.19253 -0.05533 1.98680
C 2.47023 -0.00906 -0.89726
H 3.45862 0.09906 -0.45303
H 2.25417 0.82198 -1.57177
H 2.40903 -0.94488 -1.45878
