13
structure 1
C -1.71631 -0.02115 -0.20814
O 4.63004 -0.02115 -0.20814
O -2.38444 -0.02115 -1.22909
C -2.28925 -0.01491 1.13030
Si -4.14600 0.03847 1.32235
H -4.76572 -1.15770 0.70063
H -4.69459 1.26500 0.69295
H -4.45880 0.05325 2.77429
H -1.60083 -0.04737 1.97013
C 5.23527 -0.01801 -1.49947
H 6.30456 0.08958 -1.32342
H 4.85479 0.81096 -2.09974
H 5.03128 -0.95581 -2.02267
13
structure 2
C -1.52309 -0.02120 -0.16821
O 4.34600 -0.02097 -0.16305
O -2.19636 -0.02059 -1.27224
C -2.13698 -0.01550 1.11532
Si -4.00660 0.03811 1.27068
H -4.59420 -1.14946 0.63637
H -4.52402 1.25525 0.63130
H -4.33951 0.05183 2.69721
H -1.47298 -0.04794 1.97267
C 4.98166 -0.01824 -1.44657
H 6.04926 0.09093 -1.24644
H 4.61969 0.81341 -2.05360
H 4.79421 -0.95559 -1.97286
13
structure 3
C 0.10582 -0.02048 -0.11837
O 1.81883 -0.01850 0.17638
O -0.35761 -0.01664 -1.34172
C -0.79385 -0.01976 1.00987
Si -2.65567 0.03128 0.76787
H -3.09507 -1.15524 0.02079
H -3.02951 1.25069 0.03818
H -3.28026 0.03986 2.09445
H -0.32628 -0.05445 1.98858
C 2.71947 -0.01112 -0.96042
H 3.72879 0.09869 -0.53504
H 2.50104 0.82259 -1.62486
H 2.65745 -0.94691 -1.51479
13
structure 4
C 0.25319 -0.02002 -0.14837
O 1.55471 -0.01840 0.19617
O -0.13143 -0.01650 -1.30630
C -0.64319 -0.02014 0.99889
Si -2.48738 0.03020 0.70959
H -2.92468 -1.16408 -0.05454
H -2.85939 1.25872 -0.03459
H -3.16134 0.03845 2.03318
H -0.19253 -0.05533 1.98680
C 2.47023 -0.00906 -0.89726
H 3.45862 0.09906 -0.45303
H 2.25417 0.82198 -1.57177
H 2.40903 -0.94488 -1.45878
