13
structure 1
C -1.71631 -0.02115 -0.20814
O 4.63004 -0.02115 -0.20814
O -2.38444 -0.02115 -1.22909
C -2.28925 -0.01491 1.13030
Si -4.14600 0.03847 1.32235
H -4.76572 -1.15770 0.70063
H -4.69459 1.26500 0.69295
H -4.45880 0.05325 2.77429
H -1.60083 -0.04737 1.97013
C 5.23527 -0.01801 -1.49947
H 6.30456 0.08958 -1.32342
H 4.85479 0.81096 -2.09974
H 5.03128 -0.95581 -2.02267
13
structure 2
C -1.53554 -0.02213 -0.15792
O 4.34050 -0.02130 -0.15378
O -2.19188 -0.01991 -1.29198
C -2.14198 -0.01556 1.11667
Si -4.01212 0.03833 1.27654
H -4.58442 -1.12648 0.64872
H -4.51561 1.23172 0.64364
H -4.33807 0.05162 2.67389
H -1.47841 -0.04708 1.97443
C 4.97916 -0.01881 -1.44254
H 6.05112 0.09147 -1.25486
H 4.62536 0.81488 -2.05648
H 4.79897 -0.95673 -1.97577
13
structure 3
C -1.35003 -0.02201 -0.15395
O 4.05239 -0.02101 -0.11479
O -1.98392 -0.01944 -1.30066
C -1.98889 -0.01604 1.10424
Si -3.86124 0.03758 1.21923
H -4.41721 -1.12789 0.57914
H -4.34875 1.23189 0.57661
H -4.21919 0.05032 2.60826
H -1.34838 -0.04786 1.97817
C 4.72383 -0.01811 -1.38702
H 5.79094 0.09236 -1.17417
H 4.38659 0.81641 -2.00914
H 4.55833 -0.95616 -1.92493
13
structure 4
C -1.15702 -0.02185 -0.14950
O 3.75408 -0.02071 -0.07618
O -1.77026 -0.01896 -1.30762
C -1.83142 -0.01655 1.09061
Si -3.70622 0.03678 1.16045
H -4.24605 -1.12907 0.50831
H -4.17800 1.23181 0.50836
H -4.09736 0.04897 2.54044
H -1.21612 -0.04862 1.98139
C 4.46167 -0.01742 -1.32965
H 5.52361 0.09318 -1.09160
H 4.14282 0.81791 -1.96070
H 4.31253 -0.95547 -1.87287
13
structure 5
C -0.98475 -0.02166 -0.14506
O 3.49038 -0.02044 -0.04366
O -1.58346 -0.01857 -1.31205
C -1.69351 -0.01701 1.07796
Si -3.57049 0.03606 1.10925
H -4.09663 -1.12968 0.44698
H -4.02901 1.23135 0.44925
H -3.99082 0.04777 2.48048
H -1.10146 -0.04927 1.98347
C 4.23208 -0.01681 -1.27926
H 5.28956 0.09382 -1.01978
H 3.93086 0.81912 -1.91845
H 4.09869 -0.95472 -1.82742
13
structure 6
C -0.77657 -0.02139 -0.13956
O 3.17798 -0.02016 -0.00538
O -1.36637 -0.01812 -1.31673
C -1.53302 -0.01754 1.06300
Si -3.41231 0.03519 1.04995
H -3.92275 -1.13008 0.37595
H -3.85566 1.23054 0.38078
H -3.86669 0.04638 2.41011
H -0.96846 -0.04999 1.98522
C 3.96266 -0.01605 -1.22134
H 5.01678 0.09453 -0.93629
H 3.68482 0.82030 -1.86927
H 3.85029 -0.95366 -1.77452
13
structure 7
C 0.19241 -0.02015 -0.11054
O 1.72293 -0.01879 0.16741
O -0.35248 -0.01603 -1.33799
C -0.78214 -0.02010 0.99461
Si -2.67345 0.03120 0.77457
H -3.11006 -1.13066 0.04520
H -3.04563 1.22550 0.06184
H -3.28571 0.03980 2.07802
H -0.34933 -0.05326 1.98973
C 2.70607 -0.01205 -0.95057
H 3.74121 0.09764 -0.54722
H 2.53723 0.82411 -1.63782
H 2.69132 -0.94720 -1.52620
13
structure 8
C 0.25319 -0.02002 -0.14837
O 1.55471 -0.01840 0.19617
O -0.13143 -0.01650 -1.30630
C -0.64319 -0.02014 0.99889
Si -2.48738 0.03020 0.70959
H -2.92468 -1.16408 -0.05454
H -2.85939 1.25872 -0.03459
H -3.16134 0.03845 2.03318
H -0.19253 -0.05533 1.98680
C 2.47023 -0.00906 -0.89726
H 3.45862 0.09906 -0.45303
H 2.25417 0.82198 -1.57177
H 2.40903 -0.94488 -1.45878
