13
structure 1
C -1.71631 -0.02115 -0.20814
O 4.63004 -0.02115 -0.20814
O -2.38444 -0.02115 -1.22909
C -2.28925 -0.01491 1.13030
Si -4.14600 0.03847 1.32235
H -4.76572 -1.15770 0.70063
H -4.69459 1.26500 0.69295
H -4.45880 0.05325 2.77429
H -1.60083 -0.04737 1.97013
C 5.23527 -0.01801 -1.49947
H 6.30456 0.08958 -1.32342
H 4.85479 0.81096 -2.09974
H 5.03128 -0.95581 -2.02267
13
structure 2
C -1.53825 -0.02235 -0.15769
O 4.33967 -0.02137 -0.15266
O -2.19011 -0.01975 -1.29464
C -2.14358 -0.01557 1.11717
Si -4.01112 0.03830 1.27737
H -4.58309 -1.12313 0.65059
H -4.51447 1.22829 0.64549
H -4.33838 0.05160 2.67112
H -1.47968 -0.04687 1.97472
C 4.97874 -0.01888 -1.44178
H 6.05110 0.09154 -1.25643
H 4.62644 0.81490 -2.05668
H 4.79982 -0.95667 -1.97601
13
structure 3
C -1.35293 -0.02224 -0.15384
O 4.05143 -0.02108 -0.11375
O -1.98182 -0.01927 -1.30358
C -1.99023 -0.01606 1.10484
Si -3.86015 0.03755 1.22007
H -4.41589 -1.12456 0.58091
H -4.34763 1.22848 0.57836
H -4.21939 0.05029 2.60552
H -1.34937 -0.04766 1.97869
C 4.72328 -0.01818 -1.38628
H 5.79079 0.09243 -1.17554
H 4.38743 0.81636 -2.00930
H 4.55894 -0.95605 -1.92513
13
structure 4
C -1.16077 -0.02207 -0.14941
O 3.75342 -0.02077 -0.07546
O -1.76780 -0.01880 -1.31080
C -1.83257 -0.01656 1.09136
Si -3.70500 0.03676 1.16129
H -4.24486 -1.12577 0.51004
H -4.17700 1.22843 0.51007
H -4.09747 0.04894 2.53773
H -1.21693 -0.04843 1.98214
C 4.46121 -0.01748 -1.32903
H 5.52341 0.09324 -1.09271
H 4.14358 0.81776 -1.96079
H 4.31305 -0.95526 -1.87299
13
structure 5
C -0.99001 -0.02188 -0.14500
O 3.49017 -0.02049 -0.04350
O -1.58030 -0.01840 -1.31529
C -1.69419 -0.01701 1.07875
Si -3.56895 0.03604 1.10994
H -4.09552 -1.12645 0.44866
H -4.02806 1.22804 0.45090
H -3.99079 0.04775 2.47781
H -1.10213 -0.04908 1.98447
C 4.23169 -0.01688 -1.27862
H 5.28907 0.09388 -1.02054
H 3.93144 0.81888 -1.91844
H 4.09902 -0.95442 -1.82743
13
structure 6
C -0.78570 -0.02158 -0.13966
O 3.17901 -0.02018 -0.00701
O -1.36147 -0.01795 -1.31902
C -1.53195 -0.01755 1.06307
Si -3.41016 0.03517 1.05025
H -3.92167 -1.12694 0.37755
H -3.85474 1.22729 0.38236
H -3.86641 0.04635 2.40749
H -0.96907 -0.04981 1.98654
C 3.96275 -0.01618 -1.21929
H 5.01503 0.09451 -0.93669
H 3.68493 0.82016 -1.86924
H 3.85016 -0.95335 -1.77442
13
structure 7
C -0.57861 -0.02124 -0.13433
O 2.87088 -0.01992 0.02932
O -1.14925 -0.01752 -1.32237
C -1.37427 -0.01808 1.04771
Si -3.25575 0.03430 0.99257
H -3.75284 -1.12710 0.30883
H -3.68643 1.22627 0.31610
H -3.74542 0.04498 2.33862
H -0.84023 -0.05049 1.98784
C 3.69878 -0.01541 -1.16262
H 4.74845 0.09510 -0.85524
H 3.44612 0.82115 -1.82149
H 3.60890 -0.95211 -1.72295
13
structure 8
C 0.20204 -0.01997 -0.11181
O 1.70859 -0.01892 0.16243
O -0.34688 -0.01590 -1.33478
C -0.77722 -0.02014 0.99090
Si -2.67203 0.03105 0.77557
H -3.11424 -1.12691 0.04966
H -3.04996 1.22165 0.06615
H -3.28719 0.03978 2.07604
H -0.35440 -0.05298 1.99007
C 2.70191 -0.01220 -0.94828
H 3.73971 0.09721 -0.54797
H 2.54433 0.82358 -1.63958
H 2.69752 -0.94625 -1.52734
13
structure 9
C 0.25319 -0.02002 -0.14837
O 1.55471 -0.01840 0.19617
O -0.13143 -0.01650 -1.30630
C -0.64319 -0.02014 0.99889
Si -2.48738 0.03020 0.70959
H -2.92468 -1.16408 -0.05454
H -2.85939 1.25872 -0.03459
H -3.16134 0.03845 2.03318
H -0.19253 -0.05533 1.98680
C 2.47023 -0.00906 -0.89726
H 3.45862 0.09906 -0.45303
H 2.25417 0.82198 -1.57177
H 2.40903 -0.94488 -1.45878
