13
structure 1
C -1.71631 -0.02115 -0.20814
O 4.63004 -0.02115 -0.20814
O -2.38444 -0.02115 -1.22909
C -2.28925 -0.01491 1.13030
Si -4.14600 0.03847 1.32235
H -4.76572 -1.15770 0.70063
H -4.69459 1.26500 0.69295
H -4.45880 0.05325 2.77429
H -1.60083 -0.04737 1.97013
C 5.23527 -0.01801 -1.49947
H 6.30456 0.08958 -1.32342
H 4.85479 0.81096 -2.09974
H 5.03128 -0.95581 -2.02267
13
structure 2
C -1.63278 -0.02441 -0.15997
O 4.46241 -0.02199 -0.16649
O -2.26882 -0.01863 -1.30680
C -2.21947 -0.01579 1.12232
Si -4.07102 0.03843 1.30943
H -4.65092 -1.10835 0.69078
H -4.58303 1.21369 0.68443
H -4.39615 0.05213 2.69300
H -1.54824 -0.04476 1.97356
C 5.09041 -0.01962 -1.46281
H 6.16569 0.09150 -1.30103
H 4.73913 0.81420 -2.07760
H 4.91184 -0.95638 -1.99861
13
structure 3
C -1.52711 -0.02436 -0.15821
O 4.29727 -0.02183 -0.14422
O -2.14883 -0.01834 -1.31293
C -2.13119 -0.01606 1.11582
Si -3.98475 0.03801 1.27697
H -4.55552 -1.10908 0.65068
H -4.48780 1.21371 0.64576
H -4.32814 0.05138 2.65590
H -1.47254 -0.04523 1.97661
C 4.94417 -0.01919 -1.43125
H 6.01703 0.09202 -1.25430
H 4.60191 0.81490 -2.05072
H 4.77359 -0.95592 -1.96969
13
structure 4
C -1.42414 -0.02428 -0.15625
O 4.13630 -0.02167 -0.12305
O -2.03189 -0.01806 -1.31840
C -2.04533 -0.01631 1.10940
Si -3.90065 0.03759 1.24527
H -4.46271 -1.10980 0.61176
H -4.39516 1.21374 0.60823
H -4.26180 0.05064 2.61952
H -1.39916 -0.04568 1.97939
C 4.80185 -0.01877 -1.40056
H 5.87210 0.09250 -1.20863
H 4.46859 0.81558 -2.02454
H 4.63924 -0.95547 -1.94152
13
structure 5
C -1.31582 -0.02417 -0.15393
O 3.96669 -0.02148 -0.10157
O -1.90889 -0.01778 -1.32363
C -1.95525 -0.01657 1.10251
Si -3.81219 0.03714 1.21191
H -4.36543 -1.11050 0.57114
H -4.29809 1.21371 0.56905
H -4.19206 0.04986 2.58102
H -1.32260 -0.04615 1.98215
C 4.65251 -0.01835 -1.36836
H 5.71974 0.09299 -1.16043
H 4.32916 0.81627 -1.99710
H 4.49865 -0.95498 -1.91195
13
structure 6
C -1.20893 -0.02403 -0.15133
O 3.79904 -0.02128 -0.08138
O -1.78762 -0.01750 -1.32820
C -1.86667 -0.01682 1.09557
Si -3.72503 0.03668 1.17906
H -4.27002 -1.11109 0.53148
H -4.20290 1.21359 0.53081
H -4.12343 0.04908 2.54287
H -1.24781 -0.04660 1.98472
C 4.50574 -0.01796 -1.33673
H 5.56968 0.09343 -1.11276
H 4.19268 0.81694 -1.97019
H 4.36096 -0.95448 -1.88292
13
structure 7
C -1.09774 -0.02384 -0.14834
O 3.62445 -0.02105 -0.06154
O -1.66170 -0.01722 -1.33229
C -1.77489 -0.01706 1.08815
Si -3.63459 0.03619 1.14502
H -4.17157 -1.11162 0.49076
H -4.10470 1.21338 0.49154
H -4.05230 0.04827 2.50311
H -1.17092 -0.04706 1.98720
C 4.35383 -0.01758 -1.30399
H 5.41404 0.09386 -1.06315
H 4.05206 0.81760 -1.94239
H 4.21902 -0.95392 -1.85290
13
structure 8
C -0.98787 -0.02362 -0.14512
O 3.45196 -0.02079 -0.04312
O -1.53768 -0.01695 -1.33565
C -1.68458 -0.01730 1.08057
Si -3.54554 0.03570 1.11158
H -4.07526 -1.11203 0.45112
H -4.00865 1.21307 0.45331
H -3.98239 0.04746 2.46384
H -1.09593 -0.04750 1.98942
C 4.20465 -0.01723 -1.27181
H 5.26088 0.09424 -1.01424
H 3.91465 0.81819 -1.91512
H 4.08023 -0.95330 -1.82342
13
structure 9
C -0.87239 -0.02334 -0.14152
O 3.27093 -0.02049 -0.02500
O -1.40795 -0.01667 -1.33847
C -1.59007 -0.01754 1.07227
Si -3.45238 0.03516 1.07670
H -3.97521 -1.11238 0.41013
H -3.90890 1.21267 0.41378
H -3.90940 0.04661 2.42268
H -1.01825 -0.04796 1.99146
C 4.04892 -0.01690 -1.23816
H 5.10068 0.09459 -0.96307
H 3.77197 0.81874 -1.88665
H 3.93604 -0.95258 -1.79266
13
structure 10
C -0.75777 -0.02293 -0.13783
O 3.09239 -0.02016 -0.00821
O -1.28039 -0.01648 -1.33993
C -1.49708 -0.01779 1.06338
Si -3.36090 0.03463 1.04254
H -3.87760 -1.11262 0.37033
H -3.81160 1.21219 0.37538
H -3.83781 0.04578 2.38224
H -0.94265 -0.04844 1.99269
C 3.89601 -0.01662 -1.20503
H 4.94308 0.09488 -0.91285
H 3.63276 0.81920 -1.85872
H 3.79526 -0.95175 -1.76248
13
structure 11
C -0.66436 -0.02188 -0.16201
O 2.94245 -0.01975 0.00602
O -1.16363 -0.01691 -1.31139
C -1.42375 -0.01793 1.05480
Si -3.28567 0.03432 1.01469
H -3.79512 -1.11278 0.33685
H -3.72948 1.21180 0.34304
H -3.77742 0.04507 2.34856
H -0.87868 -0.04918 1.99075
C 3.76697 -0.01648 -1.17705
H 4.80996 0.09513 -0.87071
H 3.51564 0.81948 -1.83504
H 3.67684 -0.95098 -1.73711
13
structure 12
C -0.54718 -0.02145 -0.15881
O 2.76195 -0.01945 0.02333
O -1.03411 -0.01670 -1.31285
C -1.32883 -0.01818 1.04545
Si -3.19209 0.03376 0.98010
H -3.69604 -1.11286 0.29675
H -3.63074 1.21115 0.30435
H -3.70441 0.04421 2.30705
H -0.80217 -0.04963 1.99162
C 3.61083 -0.01617 -1.14319
H 4.64864 0.09536 -0.82002
H 3.37431 0.81982 -1.80645
H 3.53379 -0.94995 -1.70616
13
structure 13
C -0.42195 -0.02105 -0.15534
O 2.57017 -0.01919 0.04287
O -0.89576 -0.01642 -1.31461
C -1.22684 -0.01845 1.03509
Si -3.09160 0.03313 0.94317
H -3.59000 -1.11288 0.25395
H -3.52506 1.21038 0.26306
H -3.62607 0.04329 2.26241
H -0.72043 -0.05004 1.99205
C 3.44304 -0.01579 -1.10698
H 4.47509 0.09554 -0.76596
H 3.22301 0.82015 -1.77583
H 3.38055 -0.94875 -1.67293
13
structure 14
C -0.31578 -0.02073 -0.15216
O 2.40800 -0.01898 0.06024
O -0.77827 -0.01614 -1.31644
C -1.13986 -0.01867 1.02614
Si -3.00596 0.03257 0.91179
H -3.49976 -1.11288 0.21758
H -3.43512 1.20970 0.22797
H -3.55933 0.04250 2.22433
H -0.65095 -0.05036 1.99217
C 3.29993 -0.01544 -1.07636
H 4.32701 0.09566 -0.72004
H 3.09428 0.82041 -1.74979
H 3.25012 -0.94769 -1.64464
13
structure 15
C -0.22160 -0.02048 -0.14900
O 2.26576 -0.01884 0.07811
O -0.67474 -0.01585 -1.31920
C -1.06189 -0.01888 1.01776
Si -2.92974 0.03204 0.88393
H -3.41976 -1.11288 0.18536
H -3.35537 1.20908 0.19690
H -3.49999 0.04180 2.19043
H -0.58940 -0.05059 1.99203
C 3.17183 -0.01510 -1.04972
H 4.19477 0.09570 -0.67932
H 2.98018 0.82070 -1.72698
H 3.13442 -0.94676 -1.61969
13
structure 16
C -0.10139 -0.02021 -0.14490
O 2.08876 -0.01872 0.10476
O -0.54725 -0.01539 -1.32449
C -0.96326 -0.01915 1.00650
Si -2.83471 0.03132 0.84915
H -3.32049 -1.11288 0.14542
H -3.25638 1.20830 0.15839
H -3.42612 0.04092 2.14826
H -0.51304 -0.05080 1.99164
C 3.01014 -0.01462 -1.01737
H 4.02902 0.09563 -0.62864
H 2.83863 0.82118 -1.69924
H 2.99075 -0.94563 -1.58907
13
structure 17
C 0.07788 -0.02010 -0.12562
O 1.87185 -0.01887 0.12944
O -0.43818 -0.01485 -1.34393
C -0.85677 -0.01951 0.98957
Si -2.74804 0.03066 0.81672
H -3.23723 -1.11255 0.11228
H -3.17345 1.20738 0.12641
H -3.36192 0.04014 2.11139
H -0.45006 -0.05094 1.99346
C 2.84954 -0.01393 -0.98649
H 3.87553 0.09489 -0.58168
H 2.71838 0.82176 -1.67794
H 2.86730 -0.94412 -1.56337
13
structure 18
C 0.21560 -0.01875 -0.12689
O 1.68944 -0.01972 0.12372
O -0.33176 -0.01499 -1.33226
C -0.77054 -0.01961 0.97653
Si -2.67717 0.03011 0.79005
H -3.17169 -1.11412 0.08494
H -3.10812 1.20853 0.10000
H -3.30981 0.03949 2.08340
H -0.39738 -0.05143 1.99429
C 2.71854 -0.01302 -0.95511
H 3.74899 0.09413 -0.54064
H 2.62160 0.82046 -1.65833
H 2.76750 -0.94110 -1.53968
13
structure 19
C 0.23265 -0.01915 -0.11485
O 1.62935 -0.01978 0.18266
O -0.22062 -0.01428 -1.35436
C -0.71218 -0.02065 0.97837
Si -2.57842 0.02951 0.75363
H -3.03910 -1.11146 0.03334
H -2.97565 1.20461 0.05039
H -3.22158 0.03855 2.02916
H -0.30336 -0.05081 1.98199
C 2.57558 -0.01196 -0.92078
H 3.58846 0.09605 -0.50268
H 2.43703 0.82138 -1.61644
H 2.58408 -0.94201 -1.50032
13
structure 20
C 0.25319 -0.02002 -0.14837
O 1.55471 -0.01840 0.19617
O -0.13143 -0.01650 -1.30630
C -0.64319 -0.02014 0.99889
Si -2.48738 0.03020 0.70959
H -2.92468 -1.16408 -0.05454
H -2.85939 1.25872 -0.03459
H -3.16134 0.03845 2.03318
H -0.19253 -0.05533 1.98680
C 2.47023 -0.00906 -0.89726
H 3.45862 0.09906 -0.45303
H 2.25417 0.82198 -1.57177
H 2.40903 -0.94488 -1.45878
