13
structure 1
C -1.71631 -0.02115 -0.20814
O 4.63004 -0.02115 -0.20814
O -2.38444 -0.02115 -1.22909
C -2.28925 -0.01491 1.13030
Si -4.14600 0.03847 1.32235
H -4.76572 -1.15770 0.70063
H -4.69459 1.26500 0.69295
H -4.45880 0.05325 2.77429
H -1.60083 -0.04737 1.97013
C 5.23527 -0.01801 -1.49947
H 6.30456 0.08958 -1.32342
H 4.85479 0.81096 -2.09974
H 5.03128 -0.95581 -2.02267
13
structure 2
C -1.61306 -0.02193 -0.16000
O 4.46730 -0.02133 -0.17303
O -2.28513 -0.02028 -1.28410
C -2.20743 -0.01534 1.12108
Si -4.07908 0.03866 1.30074
H -4.65993 -1.12982 0.67741
H -4.59075 1.23570 0.67119
H -4.39028 0.05221 2.70613
H -1.53510 -0.04694 1.97228
C 5.09217 -0.01904 -1.46779
H 6.16555 0.09095 -1.28864
H 4.73008 0.81409 -2.07714
H 4.90471 -0.95692 -1.99791
13
structure 3
C -1.50831 -0.02185 -0.15742
O 4.30477 -0.02119 -0.15119
O -2.16800 -0.02002 -1.28883
C -2.12143 -0.01561 1.11416
Si -3.99397 0.03824 1.26841
H -4.56544 -1.13051 0.63828
H -4.49647 1.23569 0.63349
H -4.32314 0.05147 2.66897
H -1.46180 -0.04737 1.97415
C 4.94831 -0.01867 -1.43667
H 6.01897 0.09146 -1.24326
H 4.59551 0.81498 -2.05044
H 4.76909 -0.95662 -1.96923
13
structure 4
C -1.40337 -0.02176 -0.15476
O 4.14280 -0.02105 -0.12982
O -2.05160 -0.01977 -1.29286
C -2.03604 -0.01589 1.10696
Si -3.90921 0.03781 1.23630
H -4.47161 -1.13109 0.59957
H -4.40288 1.23560 0.59620
H -4.25642 0.05073 2.63183
H -1.38933 -0.04778 1.97564
C 4.80518 -0.01829 -1.40563
H 5.87301 0.09194 -1.19826
H 4.46211 0.81582 -2.02388
H 4.63460 -0.95625 -1.94069
13
structure 5
C -1.29168 -0.02164 -0.15202
O 3.97249 -0.02090 -0.10751
O -1.93061 -0.01951 -1.29649
C -1.94731 -0.01618 1.09921
Si -3.82076 0.03733 1.20299
H -4.37400 -1.13165 0.55940
H -4.30553 1.23547 0.55749
H -4.18700 0.04996 2.59297
H -1.31418 -0.04821 1.97690
C 4.65554 -0.01788 -1.37354
H 5.72094 0.09241 -1.15144
H 4.32362 0.81658 -1.99618
H 4.49490 -0.95578 -1.91096
13
structure 6
C 0.13341 -0.02016 -0.11191
O 1.79751 -0.01894 0.16805
O -0.38026 -0.01626 -1.34007
C -0.80836 -0.01997 1.00209
Si -2.68712 0.03135 0.77915
H -3.12189 -1.13599 0.04670
H -3.05720 1.23106 0.06326
H -3.29543 0.03992 2.08765
H -0.35594 -0.05345 1.98713
C 2.74227 -0.01187 -0.96191
H 3.76872 0.09806 -0.55319
H 2.55234 0.82357 -1.63878
H 2.70749 -0.94732 -1.52814
13
structure 7
C 0.22463 -0.01996 -0.10680
O 1.64848 -0.01893 0.18484
O -0.25871 -0.01603 -1.34334
C -0.72213 -0.02026 0.99390
Si -2.59782 0.03084 0.74655
H -3.02365 -1.13514 0.00753
H -2.95935 1.22954 0.02546
H -3.22496 0.03911 2.04633
H -0.28098 -0.05380 1.98640
C 2.59487 -0.01109 -0.92553
H 3.61536 0.09836 -0.50749
H 2.41359 0.82375 -1.61012
H 2.56744 -0.94639 -1.49758
13
structure 8
C 0.25319 -0.02002 -0.14837
O 1.55471 -0.01840 0.19617
O -0.13143 -0.01650 -1.30630
C -0.64319 -0.02014 0.99889
Si -2.48738 0.03020 0.70959
H -2.92468 -1.16408 -0.05454
H -2.85939 1.25872 -0.03459
H -3.16134 0.03845 2.03318
H -0.19253 -0.05533 1.98680
C 2.47023 -0.00906 -0.89726
H 3.45862 0.09906 -0.45303
H 2.25417 0.82198 -1.57177
H 2.40903 -0.94488 -1.45878
