13
structure 1
C -1.71631 -0.02115 -0.20814
O 4.63004 -0.02115 -0.20814
O -2.38444 -0.02115 -1.22909
C -2.28925 -0.01491 1.13030
Si -4.14600 0.03847 1.32235
H -4.76572 -1.15770 0.70063
H -4.69459 1.26500 0.69295
H -4.45880 0.05325 2.77429
H -1.60083 -0.04737 1.97013
C 5.23527 -0.01801 -1.49947
H 6.30456 0.08958 -1.32342
H 4.85479 0.81096 -2.09974
H 5.03128 -0.95581 -2.02267
13
structure 2
C -1.63411 -0.02495 -0.16070
O 4.46195 -0.02209 -0.16620
O -2.26566 -0.01830 -1.31013
C -2.22069 -0.01593 1.12164
Si -4.07062 0.03841 1.31114
H -4.65020 -1.10707 0.69214
H -4.58237 1.21236 0.68576
H -4.39762 0.05213 2.69371
H -1.55025 -0.04434 1.97341
C 5.09041 -0.01966 -1.46245
H 6.16578 0.09157 -1.30228
H 4.73997 0.81426 -2.07741
H 4.91248 -0.95637 -1.99842
13
structure 3
C -1.52828 -0.02491 -0.15899
O 4.29653 -0.02192 -0.14389
O -2.14531 -0.01801 -1.31635
C -2.13218 -0.01620 1.11517
Si -3.98423 0.03799 1.27869
H -4.55470 -1.10776 0.65193
H -4.48703 1.21234 0.64698
H -4.32959 0.05139 2.65661
H -1.47425 -0.04481 1.97648
C 4.94389 -0.01922 -1.43083
H 6.01685 0.09208 -1.25538
H 4.60244 0.81492 -2.05051
H 4.77393 -0.95588 -1.96948
13
structure 4
C -1.42545 -0.02483 -0.15708
O 4.13570 -0.02176 -0.12274
O -2.02830 -0.01773 -1.32191
C -2.04632 -0.01645 1.10881
Si -3.90021 0.03757 1.24707
H -4.46200 -1.10845 0.61300
H -4.39450 1.21233 0.60943
H -4.26336 0.05065 2.62031
H -1.40075 -0.04526 1.97928
C 4.80165 -0.01881 -1.40018
H 5.87202 0.09257 -1.20965
H 4.46915 0.81557 -2.02438
H 4.63960 -0.95540 -1.94135
13
structure 5
C -1.31730 -0.02472 -0.15477
O 3.96617 -0.02157 -0.10128
O -1.90512 -0.01744 -1.32728
C -1.95624 -0.01670 1.10203
Si -3.81180 0.03712 1.21378
H -4.36473 -1.10910 0.57232
H -4.29743 1.21226 0.57020
H -4.19367 0.04987 2.58184
H -1.32401 -0.04573 1.98208
C 4.65231 -0.01838 -1.36802
H 5.71965 0.09305 -1.16130
H 4.32965 0.81624 -1.99698
H 4.49894 -0.95490 -1.91182
13
structure 6
C -1.21072 -0.02458 -0.15217
O 3.79868 -0.02136 -0.08112
O -1.78364 -0.01715 -1.33203
C -1.86773 -0.01695 1.09525
Si -3.72471 0.03666 1.18099
H -4.26930 -1.10967 0.53261
H -4.20223 1.21211 0.53189
H -4.12502 0.04909 2.54371
H -1.24903 -0.04618 1.98471
C 4.50555 -0.01799 -1.33646
H 5.56958 0.09350 -1.11341
H 4.19309 0.81689 -1.97013
H 4.36117 -0.95440 -1.88284
13
structure 7
C -1.10002 -0.02440 -0.14914
O 3.62432 -0.02111 -0.06133
O -1.65745 -0.01686 -1.33638
C -1.77609 -0.01719 1.08807
Si -3.63434 0.03618 1.14701
H -4.17077 -1.11016 0.49181
H -4.10395 1.21186 0.49255
H -4.05382 0.04827 2.50394
H -1.17190 -0.04664 1.98727
C 4.35367 -0.01760 -1.30384
H 5.41390 0.09394 -1.06348
H 4.05236 0.81755 -1.94241
H 4.21912 -0.95386 -1.85288
13
structure 8
C -0.99085 -0.02418 -0.14584
O 3.45214 -0.02084 -0.04299
O -1.53310 -0.01658 -1.34008
C -1.68603 -0.01742 1.08080
Si -3.54536 0.03568 1.11361
H -4.07432 -1.11055 0.45209
H -4.00777 1.21151 0.45423
H -3.98375 0.04746 2.46461
H -1.09665 -0.04709 1.98959
C 4.20453 -0.01726 -1.27183
H 5.26065 0.09434 -1.01414
H 3.91480 0.81816 -1.91522
H 4.08017 -0.95330 -1.82349
13
structure 9
C -0.87636 -0.02390 -0.14211
O 3.27156 -0.02051 -0.02500
O -1.40292 -0.01630 -1.34332
C -1.59191 -0.01765 1.07293
Si -3.45226 0.03515 1.07877
H -3.97407 -1.11085 0.41103
H -3.90782 1.21106 0.41462
H -3.91049 0.04660 2.42333
H -1.01866 -0.04755 1.99176
C 4.04888 -0.01693 -1.23842
H 5.10032 0.09472 -0.96241
H 3.77192 0.81875 -1.88685
H 3.93578 -0.95267 -1.79281
13
structure 10
C -0.76304 -0.02350 -0.13813
O 3.09348 -0.02014 -0.00844
O -1.27475 -0.01609 -1.34562
C -1.49937 -0.01788 1.06466
Si -3.36069 0.03462 1.04458
H -3.87615 -1.11105 0.37114
H -3.81023 1.21053 0.37613
H -3.83845 0.04575 2.38266
H -0.94263 -0.04803 1.99326
C 3.89603 -0.01666 -1.20559
H 4.94249 0.09506 -0.91147
H 3.63237 0.81927 -1.85897
H 3.79465 -0.95197 -1.76269
13
structure 11
C -0.66861 -0.02230 -0.16239
O 2.94420 -0.01963 0.00565
O -1.15800 -0.01667 -1.31555
C -1.42704 -0.01790 1.05574
Si -3.28656 0.03433 1.01681
H -3.79350 -1.11133 0.33750
H -3.72794 1.21026 0.34362
H -3.77792 0.04504 2.34937
H -0.87823 -0.04893 1.98999
C 3.76718 -0.01657 -1.17790
H 4.80925 0.09534 -0.86877
H 3.51496 0.81959 -1.83526
H 3.67599 -0.95133 -1.73742
13
structure 12
C -0.55304 -0.02186 -0.15877
O 2.76435 -0.01926 0.02256
O -1.02785 -0.01645 -1.31765
C -1.33278 -0.01814 1.04688
Si -3.19298 0.03378 0.98219
H -3.69409 -1.11135 0.29737
H -3.62889 1.20954 0.30489
H -3.70440 0.04417 2.30761
H -0.80129 -0.04938 1.99094
C 3.61134 -0.01628 -1.14439
H 4.64781 0.09563 -0.81736
H 3.37322 0.82000 -1.80659
H 3.53255 -0.95047 -1.70648
13
structure 13
C -0.42958 -0.02145 -0.15493
O 2.57334 -0.01894 0.04163
O -0.88877 -0.01616 -1.32000
C -1.23166 -0.01838 1.03703
Si -3.09243 0.03315 0.94517
H -3.58764 -1.11130 0.25455
H -3.52282 1.20867 0.26358
H -3.62541 0.04323 2.26267
H -0.71903 -0.04980 1.99136
C 3.44393 -0.01593 -1.10852
H 4.47412 0.09588 -0.76259
H 3.22135 0.82040 -1.77581
H 3.37875 -0.94945 -1.67316
13
structure 14
C -0.32511 -0.02114 -0.15144
O 2.41241 -0.01870 0.05907
O -0.77074 -0.01587 -1.32244
C -1.14539 -0.01859 1.02840
Si -3.00661 0.03259 0.91372
H -3.49700 -1.11121 0.21817
H -3.43250 1.20789 0.22848
H -3.55800 0.04242 2.22423
H -0.64909 -0.05011 1.99134
C 3.30095 -0.01560 -1.07822
H 4.32565 0.09605 -0.71612
H 3.09202 0.82074 -1.74964
H 3.24773 -0.94854 -1.64478
13
structure 15
C -0.21309 -0.02089 -0.14789
O 2.24360 -0.01850 0.08285
O -0.64572 -0.01543 -1.32686
C -1.05163 -0.01882 1.01820
Si -2.91404 0.03191 0.87990
H -3.40003 -1.11109 0.17936
H -3.33583 1.20698 0.19106
H -3.48547 0.04155 2.18283
H -0.57423 -0.05032 1.99078
C 3.14568 -0.01519 -1.04628
H 4.16467 0.09606 -0.66657
H 2.95344 0.82125 -1.72214
H 3.10715 -0.94757 -1.61465
13
structure 16
C -0.11380 -0.02070 -0.14527
O 2.09883 -0.01836 0.10798
O -0.53942 -0.01496 -1.33222
C -0.96910 -0.01904 1.00829
Si -2.83392 0.03127 0.85063
H -3.31695 -1.11099 0.14616
H -3.25298 1.20618 0.15906
H -3.42291 0.04079 2.14714
H -0.51002 -0.05041 1.99000
C 3.00960 -0.01480 -1.01911
H 4.02447 0.09592 -0.62402
H 2.83452 0.82179 -1.69912
H 2.98634 -0.94671 -1.58912
13
structure 17
C 0.07526 -0.02033 -0.12763
O 1.87365 -0.01859 0.13031
O -0.43083 -0.01441 -1.35019
C -0.85794 -0.01949 0.98812
Si -2.74658 0.03051 0.81834
H -3.23963 -1.11013 0.11604
H -3.17603 1.20473 0.12997
H -3.36019 0.03998 2.11085
H -0.45137 -0.05042 1.99252
C 2.84810 -0.01414 -0.98721
H 3.87042 0.09472 -0.57667
H 2.72107 0.82197 -1.67968
H 2.86887 -0.94445 -1.56450
13
structure 18
C 0.21786 -0.01858 -0.13030
O 1.68673 -0.01977 0.11969
O -0.32175 -0.01465 -1.33807
C -0.76822 -0.01940 0.97358
Si -2.67479 0.02990 0.79162
H -3.17915 -1.11146 0.09116
H -3.11585 1.20569 0.10591
H -3.30829 0.03929 2.08321
H -0.40057 -0.05104 1.99389
C 2.71600 -0.01314 -0.95636
H 3.74027 0.09364 -0.53207
H 2.62951 0.82027 -1.66135
H 2.77339 -0.94076 -1.54090
13
structure 19
C 0.23369 -0.01904 -0.11694
O 1.62827 -0.01987 0.18228
O -0.21271 -0.01386 -1.35856
C -0.71118 -0.02066 0.97573
Si -2.57633 0.02928 0.75461
H -3.04226 -1.10976 0.03689
H -2.97884 1.20263 0.05378
H -3.21975 0.03837 2.02885
H -0.30552 -0.05019 1.98065
C 2.57345 -0.01206 -0.92079
H 3.58338 0.09575 -0.49867
H 2.43907 0.82128 -1.61726
H 2.58485 -0.94186 -1.50045
13
structure 20
C 0.25319 -0.02002 -0.14837
O 1.55471 -0.01840 0.19617
O -0.13143 -0.01650 -1.30630
C -0.64319 -0.02014 0.99889
Si -2.48738 0.03020 0.70959
H -2.92468 -1.16408 -0.05454
H -2.85939 1.25872 -0.03459
H -3.16134 0.03845 2.03318
H -0.19253 -0.05533 1.98680
C 2.47023 -0.00906 -0.89726
H 3.45862 0.09906 -0.45303
H 2.25417 0.82198 -1.57177
H 2.40903 -0.94488 -1.45878
