13
structure 1
C -1.71631 -0.02115 -0.20814
O 4.63004 -0.02115 -0.20814
O -2.38444 -0.02115 -1.22909
C -2.28925 -0.01491 1.13030
Si -4.14600 0.03847 1.32235
H -4.76572 -1.15770 0.70063
H -4.69459 1.26500 0.69295
H -4.45880 0.05325 2.77429
H -1.60083 -0.04737 1.97013
C 5.23527 -0.01801 -1.49947
H 6.30456 0.08958 -1.32342
H 4.85479 0.81096 -2.09974
H 5.03128 -0.95581 -2.02267
13
structure 2
C -1.63490 -0.02546 -0.16141
O 4.46162 -0.02217 -0.16606
O -2.26269 -0.01800 -1.31299
C -2.22173 -0.01606 1.12089
Si -4.07057 0.03840 1.31266
H -4.64971 -1.10630 0.69330
H -4.58191 1.21154 0.68689
H -4.39895 0.05214 2.69470
H -1.55194 -0.04395 1.97311
C 5.09045 -0.01969 -1.46221
H 6.16590 0.09162 -1.30319
H 4.74056 0.81432 -2.07724
H 4.91293 -0.95638 -1.99824
13
structure 3
C -1.52892 -0.02542 -0.15974
O 4.29598 -0.02200 -0.14371
O -2.14204 -0.01770 -1.31926
C -2.13303 -0.01633 1.11442
Si -3.98407 0.03798 1.28023
H -4.55414 -1.10694 0.65301
H -4.48649 1.21147 0.64803
H -4.33092 0.05139 2.65760
H -1.47568 -0.04442 1.97616
C 4.94371 -0.01925 -1.43056
H 6.01676 0.09213 -1.25616
H 4.60279 0.81497 -2.05032
H 4.77414 -0.95587 -1.96927
13
structure 4
C -1.42619 -0.02535 -0.15785
O 4.13526 -0.02183 -0.12257
O -2.02496 -0.01742 -1.32487
C -2.04719 -0.01658 1.10811
Si -3.90013 0.03756 1.24868
H -4.46152 -1.10758 0.61407
H -4.39404 1.21142 0.61047
H -4.26479 0.05066 2.62135
H -1.40209 -0.04487 1.97896
C 4.80153 -0.01883 -1.39993
H 5.87199 0.09262 -1.21038
H 4.46953 0.81559 -2.02422
H 4.63984 -0.95538 -1.94118
13
structure 5
C -1.31816 -0.02524 -0.15555
O 3.96579 -0.02164 -0.10112
O -1.90163 -0.01713 -1.33032
C -1.95710 -0.01683 1.10139
Si -3.81176 0.03711 1.21544
H -4.36426 -1.10820 0.57334
H -4.29698 1.21131 0.57119
H -4.19515 0.04988 2.58291
H -1.32520 -0.04534 1.98177
C 4.65218 -0.01840 -1.36779
H 5.71961 0.09310 -1.16192
H 4.32997 0.81624 -1.99686
H 4.49912 -0.95486 -1.91168
13
structure 6
C -1.21180 -0.02510 -0.15294
O 3.79842 -0.02143 -0.08097
O -1.78000 -0.01684 -1.33519
C -1.86864 -0.01708 1.09472
Si -3.72473 0.03665 1.18272
H -4.26882 -1.10874 0.53358
H -4.20176 1.21113 0.53283
H -4.12653 0.04910 2.54482
H -1.25008 -0.04580 1.98440
C 4.50544 -0.01800 -1.33628
H 5.56953 0.09356 -1.11387
H 4.19336 0.81688 -1.97007
H 4.36130 -0.95436 -1.88275
13
structure 7
C -1.10143 -0.02492 -0.14988
O 3.62423 -0.02117 -0.06119
O -1.65361 -0.01654 -1.33970
C -1.77712 -0.01732 1.08769
Si -3.63444 0.03617 1.14879
H -4.17022 -1.10921 0.49271
H -4.10342 1.21085 0.49341
H -4.05529 0.04827 2.50507
H -1.17278 -0.04626 1.98699
C 4.35357 -0.01761 -1.30374
H 5.41381 0.09401 -1.06371
H 4.05256 0.81753 -1.94242
H 4.21916 -0.95383 -1.85285
13
structure 8
C -0.99273 -0.02471 -0.14653
O 3.45229 -0.02089 -0.04288
O -1.52902 -0.01626 -1.34359
C -1.68725 -0.01754 1.08063
Si -3.54555 0.03568 1.11545
H -4.07365 -1.10959 0.45292
H -4.00712 1.21049 0.45502
H -3.98514 0.04746 2.46575
H -1.09734 -0.04670 1.98935
C 4.20444 -0.01727 -1.27184
H 5.26049 0.09442 -1.01406
H 3.91491 0.81815 -1.91532
H 4.08012 -0.95330 -1.82353
13
structure 9
C -0.87891 -0.02444 -0.14271
O 3.27203 -0.02055 -0.02494
O -1.39853 -0.01596 -1.34710
C -1.59342 -0.01777 1.07303
Si -3.45256 0.03515 1.08065
H -3.97321 -1.10988 0.41177
H -3.90700 1.21001 0.41532
H -3.91172 0.04659 2.42445
H -1.01911 -0.04716 1.99156
C 4.04884 -0.01694 -1.23860
H 5.10008 0.09482 -0.96193
H 3.77191 0.81876 -1.88705
H 3.93559 -0.95273 -1.79295
13
structure 10
C -0.76650 -0.02404 -0.13863
O 3.09427 -0.02015 -0.00847
O -1.26991 -0.01574 -1.34983
C -1.50123 -0.01799 1.06517
Si -3.36105 0.03462 1.04648
H -3.87503 -1.11006 0.37177
H -3.80915 1.20946 0.37672
H -3.83939 0.04573 2.38370
H -0.94278 -0.04764 1.99322
C 3.89603 -0.01667 -1.20598
H 4.94208 0.09518 -0.91047
H 3.63212 0.81932 -1.85925
H 3.79424 -0.95213 -1.76291
13
structure 11
C -0.65241 -0.02267 -0.16181
O 2.91555 -0.01949 0.00840
O -1.13150 -0.01638 -1.31935
C -1.41366 -0.01794 1.05444
Si -3.27195 0.03426 1.01293
H -3.77571 -1.11051 0.33127
H -3.71025 1.20923 0.33758
H -3.76647 0.04488 2.34379
H -0.86524 -0.04874 1.98913
C 3.74133 -0.01657 -1.17292
H 4.78184 0.09555 -0.85873
H 3.49082 0.81975 -1.83078
H 3.65145 -0.95147 -1.73260
13
structure 12
C -0.55701 -0.02230 -0.15856
O 2.76604 -0.01915 0.02234
O -1.02270 -0.01620 -1.32142
C -1.33553 -0.01813 1.04733
Si -3.19406 0.03380 0.98407
H -3.69264 -1.11052 0.29776
H -3.62749 1.20862 0.30524
H -3.70492 0.04414 2.30894
H -0.80087 -0.04912 1.98993
C 3.61163 -0.01635 -1.14519
H 4.64728 0.09583 -0.81547
H 3.37250 0.82015 -1.80690
H 3.53172 -0.95086 -1.70686
13
structure 13
C -0.43475 -0.02189 -0.15445
O 2.57554 -0.01878 0.04124
O -0.88315 -0.01589 -1.32415
C -1.23499 -0.01836 1.03778
Si -3.09361 0.03317 0.94703
H -3.58584 -1.11047 0.25487
H -3.52109 1.20774 0.26385
H -3.62548 0.04319 2.26388
H -0.71826 -0.04954 1.99029
C 3.44445 -0.01601 -1.10954
H 4.47356 0.09613 -0.76021
H 3.22022 0.82063 -1.77606
H 3.37755 -0.95000 -1.67355
13
structure 14
C -0.33139 -0.02160 -0.15084
O 2.41548 -0.01850 0.05893
O -0.76483 -0.01557 -1.32695
C -1.14923 -0.01856 1.02935
Si -3.00780 0.03261 0.91551
H -3.49485 -1.11038 0.21845
H -3.43043 1.20692 0.22870
H -3.55761 0.04237 2.22530
H -0.64797 -0.04983 1.99012
C 3.30156 -0.01569 -1.07942
H 4.32491 0.09632 -0.71342
H 3.09043 0.82106 -1.74982
H 3.24606 -0.94924 -1.64514
13
structure 15
C -0.22116 -0.02141 -0.14768
O 2.24904 -0.01824 0.08379
O -0.63976 -0.01507 -1.33181
C -1.05618 -0.01878 1.01920
Si -2.91511 0.03193 0.88159
H -3.39749 -1.11023 0.17963
H -3.33337 1.20595 0.19127
H -3.48440 0.04147 2.18365
H -0.57261 -0.05000 1.98918
C 3.14639 -0.01529 -1.04745
H 4.16355 0.09635 -0.66375
H 2.95098 0.82166 -1.72214
H 3.10462 -0.94840 -1.61489
13
structure 16
C -0.12213 -0.02127 -0.14590
O 2.10628 -0.01805 0.11149
O -0.53359 -0.01452 -1.33797
C -0.97339 -0.01900 1.00881
Si -2.83435 0.03126 0.85205
H -3.31406 -1.11008 0.14647
H -3.25016 1.20505 0.15931
H -3.42093 0.04068 2.14757
H -0.50780 -0.05001 1.98788
C 3.00923 -0.01493 -1.02000
H 4.02194 0.09614 -0.62109
H 2.83098 0.82225 -1.69899
H 2.98264 -0.94757 -1.58923
13
structure 17
C 0.07262 -0.02057 -0.12933
O 1.87568 -0.01830 0.13102
O -0.42442 -0.01400 -1.35535
C -0.85919 -0.01951 0.98654
Si -2.74597 0.03039 0.81972
H -3.24116 -1.10871 0.11876
H -3.17768 1.20309 0.13253
H -3.35852 0.03983 2.11133
H -0.45199 -0.04991 1.99094
C 2.84718 -0.01430 -0.98757
H 3.86668 0.09460 -0.57251
H 2.72231 0.82201 -1.68065
H 2.86923 -0.94466 -1.56513
13
structure 18
C 0.21945 -0.01847 -0.13357
O 1.68493 -0.01974 0.11655
O -0.31310 -0.01432 -1.34368
C -0.76687 -0.01922 0.97062
Si -2.67351 0.02973 0.79301
H -3.18555 -1.10954 0.09655
H -3.12251 1.20359 0.11099
H -3.30626 0.03909 2.08383
H -0.40266 -0.05067 1.99264
C 2.71432 -0.01325 -0.95738
H 3.73301 0.09329 -0.52377
H 2.63589 0.82011 -1.66386
H 2.77797 -0.94062 -1.54192
13
structure 19
C 0.23464 -0.01895 -0.11905
O 1.62745 -0.01992 0.18203
O -0.20537 -0.01346 -1.36268
C -0.71051 -0.02066 0.97310
Si -2.57499 0.02908 0.75540
H -3.04517 -1.10868 0.03997
H -2.98179 1.20127 0.05671
H -3.21761 0.03817 2.02920
H -0.30697 -0.04959 1.97898
C 2.57177 -0.01215 -0.92072
H 3.57899 0.09549 -0.49451
H 2.44047 0.82122 -1.61786
H 2.58510 -0.94183 -1.50046
13
structure 20
C 0.25319 -0.02002 -0.14837
O 1.55471 -0.01840 0.19617
O -0.13143 -0.01650 -1.30630
C -0.64319 -0.02014 0.99889
Si -2.48738 0.03020 0.70959
H -2.92468 -1.16408 -0.05454
H -2.85939 1.25872 -0.03459
H -3.16134 0.03845 2.03318
H -0.19253 -0.05533 1.98680
C 2.47023 -0.00906 -0.89726
H 3.45862 0.09906 -0.45303
H 2.25417 0.82198 -1.57177
H 2.40903 -0.94488 -1.45878
