13
structure 1
C -1.71631 -0.02115 -0.20814
O 4.63004 -0.02115 -0.20814
O -2.38444 -0.02115 -1.22909
C -2.28925 -0.01491 1.13030
Si -4.14600 0.03847 1.32235
H -4.76572 -1.15770 0.70063
H -4.69459 1.26500 0.69295
H -4.45880 0.05325 2.77429
H -1.60083 -0.04737 1.97013
C 5.23527 -0.01801 -1.49947
H 6.30456 0.08958 -1.32342
H 4.85479 0.81096 -2.09974
H 5.03128 -0.95581 -2.02267
13
structure 2
C -1.63144 -0.02404 -0.15953
O 4.46281 -0.02191 -0.16680
O -2.27105 -0.01886 -1.30424
C -2.21849 -0.01569 1.12269
Si -4.07157 0.03845 1.30819
H -4.65158 -1.10962 0.68968
H -4.58361 1.21501 0.68336
H -4.39508 0.05212 2.69283
H -1.54667 -0.04507 1.97357
C 5.09046 -0.01957 -1.46316
H 6.16566 0.09145 -1.29995
H 4.73837 0.81418 -2.07773
H 4.91126 -0.95643 -1.99872
13
structure 3
C -1.52591 -0.02398 -0.15770
O 4.29790 -0.02176 -0.14456
O -2.15136 -0.01858 -1.31028
C -2.13041 -0.01596 1.11616
Si -3.98542 0.03803 1.27573
H -4.55627 -1.11037 0.64967
H -4.48847 1.21505 0.64478
H -4.32711 0.05138 2.65573
H -1.47121 -0.04554 1.97658
C 4.94445 -0.01915 -1.43163
H 6.01721 0.09197 -1.25334
H 4.60141 0.81491 -2.05087
H 4.77327 -0.95599 -1.96984
13
structure 4
C -1.42280 -0.02390 -0.15571
O 4.13682 -0.02160 -0.12337
O -2.03447 -0.01831 -1.31566
C -2.04455 -0.01621 1.10967
Si -3.90124 0.03761 1.24396
H -4.46337 -1.11112 0.61077
H -4.39575 1.21511 0.60727
H -4.26069 0.05064 2.61929
H -1.39793 -0.04599 1.97931
C 4.80206 -0.01874 -1.40091
H 5.87220 0.09245 -1.20774
H 4.46807 0.81561 -2.02465
H 4.63890 -0.95556 -1.94162
13
structure 5
C -1.31432 -0.02378 -0.15336
O 3.96715 -0.02142 -0.10188
O -1.91162 -0.01802 -1.32075
C -1.95448 -0.01647 1.10268
Si -3.81275 0.03716 1.21055
H -4.36608 -1.11184 0.57019
H -4.29867 1.21510 0.56814
H -4.19095 0.04986 2.58077
H -1.32152 -0.04645 1.98201
C 4.65272 -0.01832 -1.36868
H 5.71984 0.09293 -1.15967
H 4.32871 0.81633 -1.99718
H 4.49838 -0.95508 -1.91203
13
structure 6
C -1.20714 -0.02364 -0.15076
O 3.79936 -0.02122 -0.08165
O -1.79051 -0.01775 -1.32513
C -1.86585 -0.01673 1.09559
Si -3.72555 0.03670 1.17766
H -4.27067 -1.11245 0.53058
H -4.20349 1.21500 0.52994
H -4.12234 0.04908 2.54262
H -1.24689 -0.04690 1.98449
C 4.50593 -0.01793 -1.33698
H 5.56979 0.09337 -1.11219
H 4.19230 0.81700 -1.97023
H 4.36076 -0.95457 -1.88296
13
structure 7
C -1.09548 -0.02345 -0.14780
O 3.62457 -0.02099 -0.06174
O -1.66483 -0.01747 -1.32896
C -1.77394 -0.01698 1.08795
Si -3.63508 0.03621 1.14358
H -4.17227 -1.11300 0.48991
H -4.10534 1.21482 0.49072
H -4.05131 0.04827 2.50291
H -1.17019 -0.04736 1.98687
C 4.35399 -0.01755 -1.30413
H 5.41419 0.09379 -1.06286
H 4.05178 0.81766 -1.94237
H 4.21893 -0.95398 -1.85289
13
structure 8
C -0.98497 -0.02322 -0.14465
O 3.45180 -0.02075 -0.04321
O -1.54112 -0.01721 -1.33200
C -1.68343 -0.01723 1.08007
Si -3.54603 0.03571 1.11012
H -4.07606 -1.11346 0.45031
H -4.00938 1.21455 0.45254
H -3.98156 0.04747 2.46373
H -1.09544 -0.04779 1.98897
C 4.20476 -0.01721 -1.27179
H 5.26111 0.09415 -1.01431
H 3.91451 0.81824 -1.91505
H 4.08028 -0.95333 -1.82338
13
structure 9
C -0.86856 -0.02295 -0.14117
O 3.27038 -0.02048 -0.02490
O -1.41180 -0.01694 -1.33439
C -1.58859 -0.01748 1.07137
Si -3.45291 0.03518 1.07523
H -3.97616 -1.11385 0.40937
H -3.90978 1.21420 0.41306
H -3.90884 0.04663 2.42274
H -1.01804 -0.04824 1.99087
C 4.04895 -0.01687 -1.23791
H 5.10104 0.09448 -0.96363
H 3.77202 0.81877 -1.88656
H 3.93628 -0.95253 -1.79258
13
structure 10
C -0.75308 -0.02253 -0.13887
O 3.09143 -0.02019 -0.00780
O -1.28441 -0.01677 -1.33409
C -1.49537 -0.01774 1.06185
Si -3.36164 0.03466 1.04118
H -3.87878 -1.11415 0.36962
H -3.81271 1.21380 0.37472
H -3.83765 0.04580 2.38255
H -0.94278 -0.04872 1.99198
C 3.89598 -0.01657 -1.20451
H 4.94372 0.09473 -0.91404
H 3.63315 0.81919 -1.85867
H 3.79584 -0.95162 -1.76241
13
structure 11
C -0.66029 -0.02162 -0.16066
O 2.94079 -0.01986 0.00669
O -1.16829 -0.01707 -1.30858
C -1.42026 -0.01797 1.05314
Si -3.28540 0.03432 1.01310
H -3.79650 -1.11432 0.33619
H -3.73077 1.21340 0.34244
H -3.77747 0.04510 2.34874
H -0.87926 -0.04934 1.99103
C 3.76670 -0.01639 -1.17625
H 4.81069 0.09494 -0.87238
H 3.51623 0.81948 -1.83507
H 3.67760 -0.95077 -1.73700
13
structure 12
C -0.54163 -0.02122 -0.15783
O 2.75970 -0.01962 0.02452
O -1.03944 -0.01685 -1.30944
C -1.32476 -0.01824 1.04332
Si -3.19205 0.03377 0.97858
H -3.69769 -1.11447 0.29611
H -3.63228 1.21283 0.30377
H -3.70495 0.04425 2.30753
H -0.80316 -0.04977 1.99182
C 3.61032 -0.01606 -1.14207
H 4.64961 0.09512 -0.82233
H 3.37532 0.81982 -1.80664
H 3.53496 -0.94966 -1.70615
13
structure 13
C -0.44158 -0.02090 -0.15538
O 2.60780 -0.01944 0.04026
O -0.93103 -0.01663 -1.31036
C -1.24392 -0.01846 1.03482
Si -3.11321 0.03327 0.94956
H -3.61443 -1.11458 0.26238
H -3.54929 1.21232 0.27124
H -3.64374 0.04354 2.27270
H -0.73912 -0.05010 1.99221
C 3.47804 -0.01574 -1.11327
H 4.51329 0.09523 -0.78025
H 3.25659 0.82011 -1.78274
H 3.41471 -0.94869 -1.68014
13
structure 14
C -0.30683 -0.02051 -0.15169
O 2.40370 -0.01923 0.06235
O -0.78493 -0.01630 -1.31210
C -1.13438 -0.01877 1.02322
Si -3.00664 0.03258 0.91044
H -3.50199 -1.11471 0.21686
H -3.43720 1.21162 0.22734
H -3.56100 0.04257 2.22553
H -0.65276 -0.05050 1.99245
C 3.29893 -0.01529 -1.07471
H 4.32880 0.09535 -0.72348
H 3.09630 0.82044 -1.75046
H 3.25233 -0.94732 -1.64499
13
structure 15
C -0.21711 -0.02026 -0.14895
O 2.26811 -0.01909 0.07770
O -0.68775 -0.01607 -1.31369
C -1.06116 -0.01898 1.01547
Si -2.93558 0.03211 0.88438
H -3.42704 -1.11479 0.18653
H -3.36249 1.21115 0.19808
H -3.50582 0.04193 2.19406
H -0.59524 -0.05076 1.99251
C 3.17919 -0.01497 -1.04939
H 4.20572 0.09542 -0.68558
H 2.98951 0.82061 -1.72893
H 3.14411 -0.94637 -1.62155
13
structure 16
C -0.08945 -0.01996 -0.14434
O 2.07962 -0.01897 0.10338
O -0.55425 -0.01567 -1.31829
C -0.95806 -0.01926 1.00414
Si -2.83687 0.03139 0.84812
H -3.32314 -1.11490 0.14452
H -3.25888 1.21050 0.15756
H -3.42914 0.04103 2.15033
H -0.51555 -0.05104 1.99238
C 3.01064 -0.01445 -1.01566
H 4.03396 0.09545 -0.63280
H 2.84166 0.82092 -1.69959
H 2.99412 -0.94507 -1.58935
13
structure 17
C 0.07935 -0.01996 -0.12408
O 1.87097 -0.01904 0.12825
O -0.44356 -0.01516 -1.33872
C -0.85582 -0.01955 0.99025
Si -2.74984 0.03079 0.81544
H -3.23508 -1.11493 0.10905
H -3.17114 1.20990 0.12334
H -3.36308 0.04025 2.11262
H -0.44871 -0.05129 1.99358
C 2.85081 -0.01376 -0.98549
H 3.87999 0.09506 -0.58542
H 2.71557 0.82149 -1.67628
H 2.86537 -0.94385 -1.56232
13
structure 18
C 0.21360 -0.01890 -0.12462
O 1.69220 -0.01964 0.12725
O -0.33930 -0.01522 -1.32849
C -0.77298 -0.01975 0.97857
Si -2.67963 0.03028 0.78885
H -3.16598 -1.11638 0.08024
H -3.10222 1.21090 0.09553
H -3.31032 0.03962 2.08401
H -0.39438 -0.05170 1.99405
C 2.72085 -0.01292 -0.95420
H 3.75562 0.09458 -0.54622
H 2.61517 0.82072 -1.65614
H 2.76258 -0.94160 -1.53886
13
structure 19
C 0.23191 -0.01924 -0.11348
O 1.63034 -0.01970 0.18302
O -0.22626 -0.01457 -1.35158
C -0.71309 -0.02063 0.98019
Si -2.58038 0.02968 0.75284
H -3.03685 -1.11308 0.03062
H -2.97335 1.20641 0.04779
H -3.22259 0.03867 2.02986
H -0.30141 -0.05125 1.98272
C 2.57735 -0.01188 -0.92079
H 3.59228 0.09630 -0.50511
H 2.43519 0.82151 -1.61578
H 2.58317 -0.94223 -1.50018
13
structure 20
C 0.25319 -0.02002 -0.14837
O 1.55471 -0.01840 0.19617
O -0.13143 -0.01650 -1.30630
C -0.64319 -0.02014 0.99889
Si -2.48738 0.03020 0.70959
H -2.92468 -1.16408 -0.05454
H -2.85939 1.25872 -0.03459
H -3.16134 0.03845 2.03318
H -0.19253 -0.05533 1.98680
C 2.47023 -0.00906 -0.89726
H 3.45862 0.09906 -0.45303
H 2.25417 0.82198 -1.57177
H 2.40903 -0.94488 -1.45878
