13
structure 1
C -1.71631 -0.02115 -0.20814
O 4.63004 -0.02115 -0.20814
O -2.38444 -0.02115 -1.22909
C -2.28925 -0.01491 1.13030
Si -4.14600 0.03847 1.32235
H -4.76572 -1.15770 0.70063
H -4.69459 1.26500 0.69295
H -4.45880 0.05325 2.77429
H -1.60083 -0.04737 1.97013
C 5.23527 -0.01801 -1.49947
H 6.30456 0.08958 -1.32342
H 4.85479 0.81096 -2.09974
H 5.03128 -0.95581 -2.02267
13
structure 2
C -1.52920 -0.02166 -0.15926
O 4.34270 -0.02114 -0.15706
O -2.19547 -0.02024 -1.28536
C -2.13829 -0.01555 1.11533
Si -4.01282 0.03833 1.27454
H -4.58814 -1.13558 0.64377
H -4.51878 1.24101 0.63870
H -4.33803 0.05169 2.68234
H -1.47583 -0.04750 1.97362
C 4.98030 -0.01861 -1.44446
H 6.05086 0.09128 -1.25113
H 4.62285 0.81457 -2.05562
H 4.79695 -0.95657 -1.97485
13
structure 3
C -1.34282 -0.02155 -0.15500
O 4.05483 -0.02086 -0.11773
O -1.98845 -0.01978 -1.29358
C -1.98621 -0.01603 1.10282
Si -3.86205 0.03756 1.21731
H -4.42085 -1.13690 0.57439
H -4.35189 1.24111 0.57188
H -4.21946 0.05039 2.61657
H -1.34638 -0.04826 1.97676
C 4.72525 -0.01795 -1.38907
H 5.79100 0.09218 -1.17088
H 4.38464 0.81625 -2.00837
H 4.55686 -0.95614 -1.92411
13
structure 4
C -1.14613 -0.02140 -0.15023
O 3.75540 -0.02056 -0.07742
O -1.77642 -0.01931 -1.30097
C -1.83080 -0.01653 1.08954
Si -3.70704 0.03673 1.15877
H -4.24934 -1.13795 0.50363
H -4.18082 1.24095 0.50371
H -4.09784 0.04904 2.54855
H -1.21418 -0.04902 1.97947
C 4.46257 -0.01726 -1.33284
H 5.52435 0.09306 -1.08876
H 4.14118 0.81780 -1.95992
H 4.31135 -0.95554 -1.87210
13
structure 5
C 0.15764 -0.02047 -0.11011
O 1.76612 -0.01856 0.17681
O -0.36008 -0.01630 -1.34516
C -0.79090 -0.01995 1.00304
Si -2.67066 0.03139 0.77200
H -3.10142 -1.14063 0.03435
H -3.03655 1.23572 0.05133
H -3.28208 0.03982 2.08361
H -0.33767 -0.05386 1.98897
C 2.71408 -0.01170 -0.95661
H 3.73876 0.09838 -0.54275
H 2.51996 0.82434 -1.63257
H 2.67555 -0.94818 -1.52193
13
structure 6
C 0.25319 -0.02002 -0.14837
O 1.55471 -0.01840 0.19617
O -0.13143 -0.01650 -1.30630
C -0.64319 -0.02014 0.99889
Si -2.48738 0.03020 0.70959
H -2.92468 -1.16408 -0.05454
H -2.85939 1.25872 -0.03459
H -3.16134 0.03845 2.03318
H -0.19253 -0.05533 1.98680
C 2.47023 -0.00906 -0.89726
H 3.45862 0.09906 -0.45303
H 2.25417 0.82198 -1.57177
H 2.40903 -0.94488 -1.45878
